12

H         0.000000000000      2.472664049111      0.000000000000
H         2.141703184311      1.235977868265      0.000000000000
C         0.000000000000      1.390832830975      0.000000000000
H        -2.141703184311      1.235977868265      0.000000000000
C         1.204662535154      0.695342547527      0.000000000000
C        -1.204662535154      0.695342547528      0.000000000000
C         1.204662535154     -0.695342547528      0.000000000000
C        -1.204662535154     -0.695342547527      0.000000000000
H         2.141703184311     -1.235977868265      0.000000000000
C         0.000000000000     -1.390832830975      0.000000000000
H        -2.141703184311     -1.235977868265      0.000000000000
H         0.000000000000     -2.472664049111      0.000000000000
